# generated using pymatgen
data_Pb1C1Br3N2.000004
_symmetry_space_group_name_H-M   'P 1'
_cell_length_a   7.78582000
_cell_length_b   7.78582000
_cell_length_c   9.00040000
_cell_angle_alpha   90.00000000
_cell_angle_beta   90.00000000
_cell_angle_gamma   90.00000000
_symmetry_Int_Tables_number   1
_chemical_formula_structural   Pb1C1Br3N2.000004
_chemical_formula_sum   'Pb1 C1 Br3 N2.000004'
_cell_volume   545.59518525
_cell_formula_units_Z   1
loop_
 _symmetry_equiv_pos_site_id
 _symmetry_equiv_pos_as_xyz
  1  'x, y, z'
loop_
 _atom_type_symbol
 _atom_type_oxidation_number
  Pb2+  2.0
  C2+  2.0
  Br-  -1.0
  N3-  -3.0
loop_
 _atom_site_type_symbol
 _atom_site_label
 _atom_site_symmetry_multiplicity
 _atom_site_fract_x
 _atom_site_fract_y
 _atom_site_fract_z
 _atom_site_occupancy
  Pb2+  Pb1  1  0.00000000  0.00000000  0.00000000  1.0
  C2+  C1  1  0.50000000  0.50000000  0.50000000  1.0
  Br-  Br1  1  0.50000000  0.06170000  0.00000000  0.25
  Br-  Br1  1  0.06170000  0.00000000  0.50000000  0.25
  Br-  Br1  1  0.00000000  0.50000000  0.93830000  0.25
  Br-  Br1  1  0.50000000  0.00000000  0.93830000  0.25
  Br-  Br1  1  0.06170000  0.50000000  0.00000000  0.25
  Br-  Br1  1  0.00000000  0.06170000  0.50000000  0.25
  Br-  Br1  1  0.50000000  0.93830000  0.00000000  0.25
  Br-  Br1  1  0.00000000  0.50000000  0.06170000  0.25
  Br-  Br1  1  0.50000000  0.00000000  0.06170000  0.25
  Br-  Br1  1  0.00000000  0.93830000  0.50000000  0.25
  Br-  Br1  1  0.93830000  0.00000000  0.50000000  0.25
  Br-  Br1  1  0.93830000  0.50000000  0.00000000  0.25
  N3-  N1  1  0.50000000  0.36330000  0.63670000  0.166667
  N3-  N1  1  0.36330000  0.36330000  0.50000000  0.166667
  N3-  N1  1  0.36330000  0.50000000  0.63670000  0.166667
  N3-  N1  1  0.50000000  0.63670000  0.36330000  0.166667
  N3-  N1  1  0.36330000  0.63670000  0.50000000  0.166667
  N3-  N1  1  0.36330000  0.50000000  0.36330000  0.166667
  N3-  N1  1  0.50000000  0.36330000  0.36330000  0.166667
  N3-  N1  1  0.63670000  0.36330000  0.50000000  0.166667
  N3-  N1  1  0.63670000  0.50000000  0.36330000  0.166667
  N3-  N1  1  0.50000000  0.63670000  0.63670000  0.166667
  N3-  N1  1  0.63670000  0.63670000  0.50000000  0.166667
  N3-  N1  1  0.63670000  0.50000000  0.63670000  0.166667
